MAT1  ,      1,3.47,,,4.28,6.5e-006,537,0.23,
      ,       ,,,
PSHELL,      1,1,1,,,,,0
GRID  ,      1,, 4.000000000e+02, 0.000000000e+00, 0.000000000e+00
GRID  ,      2,, 3.899711649e+02, 0.000000000e+00, 8.900837361e+01
GRID  ,      3,, 3.603875472e+02, 0.000000000e+00, 1.735534957e+02
GRID  ,      4,, 3.127325930e+02, 0.000000000e+00, 2.493959207e+02
GRID  ,      5,, 2.493959206e+02, 0.000000000e+00, 3.127325931e+02
GRID  ,      6,, 1.735534953e+02, 0.000000000e+00, 3.603875473e+02
GRID  ,      7,, 8.900837396e+01, 0.000000000e+00, 3.899711648e+02
GRID  ,      8,, 2.449293598e-14, 0.000000000e+00, 4.000000000e+02
GRID  ,      9,,-8.900837361e+01, 0.000000000e+00, 3.899711649e+02
GRID  ,     10,,-1.735534957e+02, 0.000000000e+00, 3.603875472e+02
GRID  ,     11,,-2.493959207e+02, 0.000000000e+00, 3.127325930e+02
GRID  ,     12,,-3.127325931e+02, 0.000000000e+00, 2.493959206e+02
GRID  ,     13,,-3.603875473e+02, 0.000000000e+00, 1.735534953e+02
GRID  ,     14,,-3.899711648e+02, 0.000000000e+00, 8.900837396e+01
GRID  ,     15,,-4.000000000e+02, 0.000000000e+00, 4.898587197e-14
GRID  ,     16,,-3.899711648e+02, 1.090038203e-14,-8.900837396e+01
GRID  ,     17,,-3.603875473e+02, 2.125417325e-14,-1.735534953e+02
GRID  ,     18,,-3.127325931e+02, 3.054219159e-14,-2.493959206e+02
GRID  ,     19,,-2.493959207e+02, 3.829869690e-14,-3.127325930e+02
GRID  ,     20,,-1.735534957e+02, 4.413474561e-14,-3.603875472e+02
$ ... 167 like lines cut
CTRIA3,      1,1,     29,     30,     31,,0.000000
CTRIA3,      2,1,     32,     33,     34,,0.000000
CTRIA3,      3,1,     35,      8,     36,,0.000000
CTRIA3,      4,1,     23,     37,     38,,0.000000
CTRIA3,      5,1,     39,     23,     24,,0.000000
CTRIA3,      6,1,     40,     35,     41,,0.000000
CTRIA3,      7,1,     42,     39,     43,,0.000000
CTRIA3,      8,1,     43,     25,     44,,0.000000
CTRIA3,      9,1,     45,     46,     47,,0.000000
CTRIA3,     10,1,     48,     49,     50,,0.000000
CTRIA3,     11,1,     49,     51,     52,,0.000000
CTRIA3,     12,1,     53,     51,     54,,0.000000
CTRIA3,     13,1,     55,     56,     57,,0.000000
CTRIA3,     14,1,     53,     54,     27,,0.000000
CTRIA3,     15,1,     58,     59,     60,,0.000000
CTRIA3,     16,1,     41,     58,     40,,0.000000
CTRIA3,     17,1,     61,     62,     63,,0.000000
CTRIA3,     18,1,     60,     62,     61,,0.000000
CTRIA3,     19,1,     64,     34,     65,,0.000000
CTRIA3,     20,1,      5,      6,     66,,0.000000
$ ... 324 like lines cut
